    12
unstable frequency at     -2.525 1/cm IR int. is 3.628 a.m.u.; force const. is 0.000 mDyne/Ang.
C        -0.0002   -0.2736   -4.5465   -0.1046    0.0000   -0.0000
C         1.2011   -0.9672   -4.5465   -0.0523    0.0906    0.0000
C         1.2011   -2.3544   -4.5465    0.0523    0.0906    0.0000
C        -0.0002   -3.0480   -4.5465    0.1046    0.0000    0.0000
C        -1.2016   -2.3544   -4.5465    0.0523   -0.0906   -0.0000
C        -1.2016   -0.9672   -4.5465   -0.0523   -0.0906   -0.0000
H        -0.0002    0.8201   -4.5465   -0.1871    0.0000   -0.0000
H         2.1483   -0.4203   -4.5465   -0.0935    0.1620    0.0000
H         2.1483   -2.9013   -4.5465    0.0935    0.1620    0.0000
H        -0.0002   -4.1417   -4.5465    0.1871    0.0000    0.0000
H        -2.1488   -2.9013   -4.5465    0.0935   -0.1620   -0.0000
H        -2.1488   -0.4203   -4.5465   -0.0935   -0.1620   -0.0000
    12
unstable frequency at     -1.200 1/cm IR int. is 3.626 a.m.u.; force const. is 0.000 mDyne/Ang.
C        -0.0002   -0.2736   -4.5465    0.0000    0.0000    0.0000
C         1.2011   -0.9672   -4.5465    0.0000    0.0000   -0.1281
C         1.2011   -2.3544   -4.5465    0.0000    0.0000   -0.1281
C        -0.0002   -3.0480   -4.5465    0.0000    0.0000   -0.0000
C        -1.2016   -2.3544   -4.5465    0.0000    0.0000    0.1281
C        -1.2016   -0.9672   -4.5465    0.0000    0.0000    0.1281
H        -0.0002    0.8201   -4.5465    0.0000    0.0000    0.0000
H         2.1483   -0.4203   -4.5465    0.0000    0.0000   -0.2292
H         2.1483   -2.9013   -4.5465    0.0000    0.0000   -0.2292
H        -0.0002   -4.1417   -4.5465    0.0000    0.0000   -0.0000
H        -2.1488   -2.9013   -4.5465    0.0000    0.0000    0.2292
H        -2.1488   -0.4203   -4.5465    0.0000    0.0000    0.2292
    12
unstable frequency at     -1.186 1/cm IR int. is 3.628 a.m.u.; force const. is 0.000 mDyne/Ang.
C        -0.0002   -0.2736   -4.5465   -0.0000    0.0000    0.1479
C         1.2011   -0.9672   -4.5465   -0.0000    0.0000    0.0740
C         1.2011   -2.3544   -4.5465   -0.0000    0.0000   -0.0740
C        -0.0002   -3.0480   -4.5465   -0.0000    0.0000   -0.1479
C        -1.2016   -2.3544   -4.5465   -0.0000    0.0000   -0.0740
C        -1.2016   -0.9672   -4.5465   -0.0000    0.0000    0.0740
H        -0.0002    0.8201   -4.5465   -0.0000    0.0000    0.2646
H         2.1483   -0.4203   -4.5465   -0.0000    0.0000    0.1323
H         2.1483   -2.9013   -4.5465   -0.0000    0.0000   -0.1323
H        -0.0002   -4.1417   -4.5465    0.0000    0.0000   -0.2646
H        -2.1488   -2.9013   -4.5465   -0.0000    0.0000   -0.1323
H        -2.1488   -0.4203   -4.5465   -0.0000    0.0000    0.1323
    12
unstable frequency at     -0.036 1/cm IR int. is 6.508 a.m.u.; force const. is 0.000 mDyne/Ang.
C        -0.0002   -0.2736   -4.5465   -0.0000   -0.0000   -0.1131
C         1.2011   -0.9672   -4.5465   -0.0000   -0.0000   -0.1131
C         1.2011   -2.3544   -4.5465   -0.0000   -0.0000   -0.1131
C        -0.0002   -3.0480   -4.5465   -0.0000   -0.0000   -0.1131
C        -1.2016   -2.3544   -4.5465   -0.0000   -0.0000   -0.1131
C        -1.2016   -0.9672   -4.5465   -0.0000   -0.0000   -0.1131
H        -0.0002    0.8201   -4.5465   -0.0000   -0.0000   -0.1132
H         2.1483   -0.4203   -4.5465   -0.0000   -0.0000   -0.1132
H         2.1483   -2.9013   -4.5465   -0.0000   -0.0000   -0.1132
H        -0.0002   -4.1417   -4.5465   -0.0000   -0.0000   -0.1132
H        -2.1488   -2.9013   -4.5465   -0.0000   -0.0000   -0.1132
H        -2.1488   -0.4203   -4.5465   -0.0000   -0.0000   -0.1132
    12
unstable frequency at     -0.007 1/cm IR int. is 6.509 a.m.u.; force const. is 0.000 mDyne/Ang.
C        -0.0002   -0.2736   -4.5465    0.0000   -0.1131    0.0000
C         1.2011   -0.9672   -4.5465    0.0000   -0.1131    0.0000
C         1.2011   -2.3544   -4.5465    0.0000   -0.1131    0.0000
C        -0.0002   -3.0480   -4.5465    0.0000   -0.1131    0.0000
C        -1.2016   -2.3544   -4.5465    0.0000   -0.1131    0.0000
C        -1.2016   -0.9672   -4.5465    0.0000   -0.1131    0.0000
H        -0.0002    0.8201   -4.5465    0.0000   -0.1131    0.0000
H         2.1483   -0.4203   -4.5465    0.0000   -0.1131    0.0000
H         2.1483   -2.9013   -4.5465   -0.0000   -0.1131    0.0000
H        -0.0002   -4.1417   -4.5465    0.0000   -0.1131    0.0000
H        -2.1488   -2.9013   -4.5465    0.0000   -0.1131    0.0000
H        -2.1488   -0.4203   -4.5465   -0.0000   -0.1131    0.0000
    12
unstable frequency at     -0.002 1/cm IR int. is 6.509 a.m.u.; force const. is 0.000 mDyne/Ang.
C        -0.0002   -0.2736   -4.5465    0.1131    0.0000   -0.0000
C         1.2011   -0.9672   -4.5465    0.1131    0.0000   -0.0000
C         1.2011   -2.3544   -4.5465    0.1131    0.0000   -0.0000
C        -0.0002   -3.0480   -4.5465    0.1131    0.0000   -0.0000
C        -1.2016   -2.3544   -4.5465    0.1131    0.0000   -0.0000
C        -1.2016   -0.9672   -4.5465    0.1131    0.0000   -0.0000
H        -0.0002    0.8201   -4.5465    0.1131    0.0000   -0.0000
H         2.1483   -0.4203   -4.5465    0.1131    0.0000   -0.0000
H         2.1483   -2.9013   -4.5465    0.1131   -0.0000   -0.0000
H        -0.0002   -4.1417   -4.5465    0.1131    0.0000   -0.0000
H        -2.1488   -2.9013   -4.5465    0.1131    0.0000   -0.0000
H        -2.1488   -0.4203   -4.5465    0.1131   -0.0000   -0.0000
    12
stable frequency at    396.108 1/cm IR int. is 2.794 a.m.u.; force const. is 0.258 mDyne/Ang.
C        -0.0002   -0.2736   -4.5465   -0.0000    0.0000   -0.0000
C         1.2011   -0.9672   -4.5465   -0.0000   -0.0000    0.1205
C         1.2011   -2.3544   -4.5465   -0.0000   -0.0000   -0.1205
C        -0.0002   -3.0480   -4.5465   -0.0000    0.0000   -0.0000
C        -1.2016   -2.3544   -4.5465    0.0000    0.0000    0.1205
C        -1.2016   -0.9672   -4.5465   -0.0000    0.0000   -0.1205
H        -0.0002    0.8201   -4.5465    0.0000   -0.0000   -0.0000
H         2.1483   -0.4203   -4.5465   -0.0000   -0.0000    0.2738
H         2.1483   -2.9013   -4.5465   -0.0000   -0.0000   -0.2738
H        -0.0002   -4.1417   -4.5465   -0.0000    0.0000   -0.0000
H        -2.1488   -2.9013   -4.5465    0.0000    0.0000    0.2738
H        -2.1488   -0.4203   -4.5465   -0.0000   -0.0000   -0.2738
    12
stable frequency at    396.215 1/cm IR int. is 2.796 a.m.u.; force const. is 0.259 mDyne/Ang.
C        -0.0002   -0.2736   -4.5465    0.0000    0.0000   -0.1392
C         1.2011   -0.9672   -4.5465    0.0000    0.0000    0.0696
C         1.2011   -2.3544   -4.5465   -0.0000    0.0000    0.0696
C        -0.0002   -3.0480   -4.5465   -0.0000   -0.0000   -0.1392
C        -1.2016   -2.3544   -4.5465    0.0000   -0.0000    0.0696
C        -1.2016   -0.9672   -4.5465    0.0000    0.0000    0.0696
H        -0.0002    0.8201   -4.5465    0.0000    0.0000   -0.3157
H         2.1483   -0.4203   -4.5465    0.0000    0.0000    0.1583
H         2.1483   -2.9013   -4.5465   -0.0000   -0.0000    0.1583
H        -0.0002   -4.1417   -4.5465   -0.0000   -0.0000   -0.3157
H        -2.1488   -2.9013   -4.5465    0.0000   -0.0000    0.1583
H        -2.1488   -0.4203   -4.5465    0.0000    0.0000    0.1583
    12
stable frequency at    605.756 1/cm IR int. is 5.955 a.m.u.; force const. is 1.287 mDyne/Ang.
C        -0.0002   -0.2736   -4.5465   -0.0000    0.1463    0.0000
C         1.2011   -0.9672   -4.5465   -0.0899    0.0096   -0.0000
C         1.2011   -2.3544   -4.5465   -0.0899   -0.0096   -0.0000
C        -0.0002   -3.0480   -4.5465    0.0000   -0.1463   -0.0000
C        -1.2016   -2.3544   -4.5465    0.0899   -0.0096   -0.0000
C        -1.2016   -0.9672   -4.5465    0.0899    0.0096   -0.0000
H        -0.0002    0.8201   -4.5465    0.0000    0.1459    0.0000
H         2.1483   -0.4203   -4.5465   -0.0209   -0.1096    0.0000
H         2.1483   -2.9013   -4.5465   -0.0209    0.1096    0.0000
H        -0.0002   -4.1417   -4.5465   -0.0000   -0.1459    0.0000
H        -2.1488   -2.9013   -4.5465    0.0209    0.1096    0.0000
H        -2.1488   -0.4203   -4.5465    0.0209   -0.1096    0.0000
    12
stable frequency at    605.788 1/cm IR int. is 5.952 a.m.u.; force const. is 1.287 mDyne/Ang.
C        -0.0002   -0.2736   -4.5465   -0.0615   -0.0000   -0.0000
C         1.2011   -0.9672   -4.5465   -0.0943   -0.0899   -0.0000
C         1.2011   -2.3544   -4.5465    0.0943   -0.0899    0.0000
C        -0.0002   -3.0480   -4.5465    0.0615    0.0000   -0.0000
C        -1.2016   -2.3544   -4.5465    0.0943    0.0899   -0.0000
C        -1.2016   -0.9672   -4.5465   -0.0943    0.0899   -0.0000
H        -0.0002    0.8201   -4.5465    0.0977   -0.0000    0.0000
H         2.1483   -0.4203   -4.5465   -0.1339   -0.0207    0.0000
H         2.1483   -2.9013   -4.5465    0.1339   -0.0207    0.0000
H        -0.0002   -4.1417   -4.5465   -0.0977    0.0000    0.0000
H        -2.1488   -2.9013   -4.5465    0.1339    0.0207    0.0000
H        -2.1488   -0.4203   -4.5465   -0.1339    0.0207    0.0000
    12
stable frequency at    653.595 1/cm IR int. is 1.085 a.m.u.; force const. is 0.273 mDyne/Ang.
C        -0.0002   -0.2736   -4.5465   -0.0000    0.0000    0.0327
C         1.2011   -0.9672   -4.5465   -0.0000   -0.0000    0.0328
C         1.2011   -2.3544   -4.5465    0.0000   -0.0000    0.0328
C        -0.0002   -3.0480   -4.5465    0.0000   -0.0000    0.0327
C        -1.2016   -2.3544   -4.5465    0.0000    0.0000    0.0328
C        -1.2016   -0.9672   -4.5465   -0.0000    0.0000    0.0328
H        -0.0002    0.8201   -4.5465    0.0000    0.0000   -0.3910
H         2.1483   -0.4203   -4.5465   -0.0000   -0.0000   -0.3904
H         2.1483   -2.9013   -4.5465    0.0000    0.0000   -0.3904
H        -0.0002   -4.1417   -4.5465    0.0000   -0.0000   -0.3910
H        -2.1488   -2.9013   -4.5465    0.0000    0.0000   -0.3904
H        -2.1488   -0.4203   -4.5465   -0.0000    0.0000   -0.3904
    12
stable frequency at    711.782 1/cm IR int. is 3.544 a.m.u.; force const. is 1.058 mDyne/Ang.
C        -0.0002   -0.2736   -4.5465    0.0000   -0.0000    0.1042
C         1.2011   -0.9672   -4.5465    0.0000    0.0000   -0.1041
C         1.2011   -2.3544   -4.5465    0.0000    0.0000    0.1041
C        -0.0002   -3.0480   -4.5465   -0.0000    0.0000   -0.1042
C        -1.2016   -2.3544   -4.5465   -0.0000   -0.0000    0.1041
C        -1.2016   -0.9672   -4.5465    0.0000   -0.0000   -0.1041
H        -0.0002    0.8201   -4.5465   -0.0000   -0.0000    0.1896
H         2.1483   -0.4203   -4.5465   -0.0000    0.0000   -0.1905
H         2.1483   -2.9013   -4.5465   -0.0000   -0.0000    0.1905
H        -0.0002   -4.1417   -4.5465   -0.0000    0.0000   -0.1896
H        -2.1488   -2.9013   -4.5465   -0.0000    0.0000    0.1905
H        -2.1488   -0.4203   -4.5465    0.0000   -0.0000   -0.1905
    12
stable frequency at    827.863 1/cm IR int. is 1.250 a.m.u.; force const. is 0.505 mDyne/Ang.
C        -0.0002   -0.2736   -4.5465   -0.0000   -0.0000    0.0766
C         1.2011   -0.9672   -4.5465   -0.0000   -0.0000    0.0384
C         1.2011   -2.3544   -4.5465   -0.0000    0.0000   -0.0384
C        -0.0002   -3.0480   -4.5465    0.0000    0.0000   -0.0766
C        -1.2016   -2.3544   -4.5465    0.0000   -0.0000   -0.0384
C        -1.2016   -0.9672   -4.5465   -0.0000    0.0000    0.0384
H        -0.0002    0.8201   -4.5465    0.0000   -0.0000   -0.5110
H         2.1483   -0.4203   -4.5465    0.0000   -0.0000   -0.2549
H         2.1483   -2.9013   -4.5465    0.0000    0.0000    0.2549
H        -0.0002   -4.1417   -4.5465    0.0000    0.0000    0.5110
H        -2.1488   -2.9013   -4.5465    0.0000   -0.0000    0.2549
H        -2.1488   -0.4203   -4.5465   -0.0000    0.0000   -0.2549
    12
stable frequency at    827.953 1/cm IR int. is 1.251 a.m.u.; force const. is 0.505 mDyne/Ang.
C        -0.0002   -0.2736   -4.5465    0.0000    0.0000    0.0000
C         1.2011   -0.9672   -4.5465    0.0000    0.0000   -0.0664
C         1.2011   -2.3544   -4.5465   -0.0000   -0.0000   -0.0664
C        -0.0002   -3.0480   -4.5465    0.0000    0.0000   -0.0000
C        -1.2016   -2.3544   -4.5465   -0.0000    0.0000    0.0664
C        -1.2016   -0.9672   -4.5465   -0.0000    0.0000    0.0664
H        -0.0002    0.8201   -4.5465    0.0000    0.0000   -0.0000
H         2.1483   -0.4203   -4.5465    0.0000   -0.0000    0.4421
H         2.1483   -2.9013   -4.5465   -0.0000   -0.0000    0.4421
H        -0.0002   -4.1417   -4.5465    0.0000    0.0000    0.0000
H        -2.1488   -2.9013   -4.5465    0.0000   -0.0000   -0.4421
H        -2.1488   -0.4203   -4.5465   -0.0000   -0.0000   -0.4421
    12
stable frequency at    947.324 1/cm IR int. is 1.393 a.m.u.; force const. is 0.737 mDyne/Ang.
C        -0.0002   -0.2736   -4.5465   -0.0000    0.0000    0.0915
C         1.2011   -0.9672   -4.5465    0.0000   -0.0000   -0.0458
C         1.2011   -2.3544   -4.5465    0.0000   -0.0000   -0.0458
C        -0.0002   -3.0480   -4.5465    0.0000    0.0000    0.0915
C        -1.2016   -2.3544   -4.5465   -0.0000   -0.0000   -0.0458
C        -1.2016   -0.9672   -4.5465   -0.0000    0.0000   -0.0458
H        -0.0002    0.8201   -4.5465    0.0000    0.0000   -0.4803
H         2.1483   -0.4203   -4.5465    0.0000   -0.0000    0.2404
H         2.1483   -2.9013   -4.5465    0.0000    0.0000    0.2404
H        -0.0002   -4.1417   -4.5465    0.0000    0.0000   -0.4803
H        -2.1488   -2.9013   -4.5465   -0.0000   -0.0000    0.2404
H        -2.1488   -0.4203   -4.5465   -0.0000   -0.0000    0.2404
    12
stable frequency at    947.434 1/cm IR int. is 1.394 a.m.u.; force const. is 0.737 mDyne/Ang.
C        -0.0002   -0.2736   -4.5465    0.0000    0.0000   -0.0000
C         1.2011   -0.9672   -4.5465   -0.0000   -0.0000    0.0793
C         1.2011   -2.3544   -4.5465   -0.0000   -0.0000   -0.0793
C        -0.0002   -3.0480   -4.5465    0.0000   -0.0000   -0.0000
C        -1.2016   -2.3544   -4.5465   -0.0000    0.0000    0.0793
C        -1.2016   -0.9672   -4.5465    0.0000    0.0000   -0.0793
H        -0.0002    0.8201   -4.5465   -0.0000    0.0000    0.0000
H         2.1483   -0.4203   -4.5465   -0.0000    0.0000   -0.4160
H         2.1483   -2.9013   -4.5465    0.0000    0.0000    0.4160
H        -0.0002   -4.1417   -4.5465    0.0000   -0.0000    0.0000
H        -2.1488   -2.9013   -4.5465   -0.0000    0.0000   -0.4160
H        -2.1488   -0.4203   -4.5465   -0.0000   -0.0000    0.4160
    12
stable frequency at    976.386 1/cm IR int. is 1.261 a.m.u.; force const. is 0.708 mDyne/Ang.
C        -0.0002   -0.2736   -4.5465   -0.0000   -0.0000    0.0551
C         1.2011   -0.9672   -4.5465    0.0000    0.0000   -0.0551
C         1.2011   -2.3544   -4.5465    0.0000    0.0000    0.0551
C        -0.0002   -3.0480   -4.5465    0.0000   -0.0000   -0.0551
C        -1.2016   -2.3544   -4.5465   -0.0000    0.0000    0.0551
C        -1.2016   -0.9672   -4.5465   -0.0000    0.0000   -0.0551
H        -0.0002    0.8201   -4.5465    0.0000   -0.0000   -0.3591
H         2.1483   -0.4203   -4.5465   -0.0000    0.0000    0.3596
H         2.1483   -2.9013   -4.5465    0.0000    0.0000   -0.3596
H        -0.0002   -4.1417   -4.5465    0.0000   -0.0000    0.3591
H        -2.1488   -2.9013   -4.5465   -0.0000    0.0000   -0.3596
H        -2.1488   -0.4203   -4.5465    0.0000    0.0000    0.3596
    12
stable frequency at    998.701 1/cm IR int. is 6.551 a.m.u.; force const. is 3.850 mDyne/Ang.
C        -0.0002   -0.2736   -4.5465    0.0000   -0.1131   -0.0000
C         1.2011   -0.9672   -4.5465    0.0981    0.0566   -0.0000
C         1.2011   -2.3544   -4.5465   -0.0981    0.0566   -0.0000
C        -0.0002   -3.0480   -4.5465    0.0000   -0.1131    0.0000
C        -1.2016   -2.3544   -4.5465    0.0981    0.0566   -0.0000
C        -1.2016   -0.9672   -4.5465   -0.0981    0.0566    0.0000
H        -0.0002    0.8201   -4.5465    0.0000   -0.1123    0.0000
H         2.1483   -0.4203   -4.5465    0.0976    0.0558   -0.0000
H         2.1483   -2.9013   -4.5465   -0.0976    0.0558    0.0000
H        -0.0002   -4.1417   -4.5465    0.0000   -0.1123   -0.0000
H        -2.1488   -2.9013   -4.5465    0.0976    0.0558   -0.0000
H        -2.1488   -0.4203   -4.5465   -0.0976    0.0558   -0.0000
    12
stable frequency at   1014.534 1/cm IR int. is 6.008 a.m.u.; force const. is 3.644 mDyne/Ang.
C        -0.0002   -0.2736   -4.5465   -0.0000    0.1122   -0.0000
C         1.2011   -0.9672   -4.5465    0.0973    0.0561    0.0000
C         1.2011   -2.3544   -4.5465    0.0973   -0.0561    0.0000
C        -0.0002   -3.0480   -4.5465   -0.0000   -0.1122    0.0000
C        -1.2016   -2.3544   -4.5465   -0.0973   -0.0561    0.0000
C        -1.2016   -0.9672   -4.5465   -0.0973    0.0561    0.0000
H        -0.0002    0.8201   -4.5465   -0.0000    0.1229    0.0000
H         2.1483   -0.4203   -4.5465    0.1067    0.0613   -0.0000
H         2.1483   -2.9013   -4.5465    0.1067   -0.0613   -0.0000
H        -0.0002   -4.1417   -4.5465   -0.0000   -0.1229   -0.0000
H        -2.1488   -2.9013   -4.5465   -0.1067   -0.0613    0.0000
H        -2.1488   -0.4203   -4.5465   -0.1067    0.0613   -0.0000
    12
stable frequency at   1040.708 1/cm IR int. is 1.556 a.m.u.; force const. is 0.993 mDyne/Ang.
C        -0.0002   -0.2736   -4.5465   -0.0000    0.0863   -0.0000
C         1.2011   -0.9672   -4.5465    0.0619   -0.0212   -0.0000
C         1.2011   -2.3544   -4.5465   -0.0619   -0.0212    0.0000
C        -0.0002   -3.0480   -4.5465   -0.0000    0.0863   -0.0000
C        -1.2016   -2.3544   -4.5465    0.0619   -0.0212    0.0000
C        -1.2016   -0.9672   -4.5465   -0.0619   -0.0212   -0.0000
H        -0.0002    0.8201   -4.5465   -0.0000    0.0930    0.0000
H         2.1483   -0.4203   -4.5465    0.2313   -0.3080    0.0000
H         2.1483   -2.9013   -4.5465   -0.2313   -0.3080   -0.0000
H        -0.0002   -4.1417   -4.5465   -0.0000    0.0930    0.0000
H        -2.1488   -2.9013   -4.5465    0.2313   -0.3080   -0.0000
H        -2.1488   -0.4203   -4.5465   -0.2313   -0.3080    0.0000
    12
stable frequency at   1041.062 1/cm IR int. is 1.556 a.m.u.; force const. is 0.994 mDyne/Ang.
C        -0.0002   -0.2736   -4.5465    0.0570    0.0000   -0.0000
C         1.2011   -0.9672   -4.5465   -0.0504   -0.0620   -0.0000
C         1.2011   -2.3544   -4.5465   -0.0504    0.0620    0.0000
C        -0.0002   -3.0480   -4.5465    0.0570    0.0000    0.0000
C        -1.2016   -2.3544   -4.5465   -0.0504   -0.0620    0.0000
C        -1.2016   -0.9672   -4.5465   -0.0504    0.0620   -0.0000
H        -0.0002    0.8201   -4.5465    0.4421    0.0000    0.0000
H         2.1483   -0.4203   -4.5465    0.0402   -0.2308    0.0000
H         2.1483   -2.9013   -4.5465    0.0402    0.2308   -0.0000
H        -0.0002   -4.1417   -4.5465    0.4421    0.0000   -0.0000
H        -2.1488   -2.9013   -4.5465    0.0402   -0.2308    0.0000
H        -2.1488   -0.4203   -4.5465    0.0402    0.2308    0.0000
    12
stable frequency at   1125.549 1/cm IR int. is 1.029 a.m.u.; force const. is 0.768 mDyne/Ang.
C        -0.0002   -0.2736   -4.5465   -0.0175   -0.0000    0.0000
C         1.2011   -0.9672   -4.5465    0.0087   -0.0154   -0.0000
C         1.2011   -2.3544   -4.5465    0.0087    0.0154    0.0000
C        -0.0002   -3.0480   -4.5465   -0.0175    0.0000    0.0000
C        -1.2016   -2.3544   -4.5465    0.0087   -0.0154    0.0000
C        -1.2016   -0.9672   -4.5465    0.0087    0.0154   -0.0000
H        -0.0002    0.8201   -4.5465   -0.4013   -0.0000    0.0000
H         2.1483   -0.4203   -4.5465    0.2010   -0.3486    0.0000
H         2.1483   -2.9013   -4.5465    0.2010    0.3486   -0.0000
H        -0.0002   -4.1417   -4.5465   -0.4013    0.0000   -0.0000
H        -2.1488   -2.9013   -4.5465    0.2010   -0.3486   -0.0000
H        -2.1488   -0.4203   -4.5465    0.2010    0.3486    0.0000
    12
stable frequency at   1151.820 1/cm IR int. is 1.105 a.m.u.; force const. is 0.864 mDyne/Ang.
C        -0.0002   -0.2736   -4.5465    0.0508   -0.0000   -0.0000
C         1.2011   -0.9672   -4.5465   -0.0062    0.0257    0.0000
C         1.2011   -2.3544   -4.5465    0.0062    0.0257    0.0000
C        -0.0002   -3.0480   -4.5465   -0.0508    0.0000    0.0000
C        -1.2016   -2.3544   -4.5465    0.0062   -0.0257    0.0000
C        -1.2016   -0.9672   -4.5465   -0.0062   -0.0257   -0.0000
H        -0.0002    0.8201   -4.5465    0.5468   -0.0000   -0.0000
H         2.1483   -0.4203   -4.5465   -0.1305    0.2403   -0.0000
H         2.1483   -2.9013   -4.5465    0.1305    0.2403   -0.0000
H        -0.0002   -4.1417   -4.5465   -0.5468    0.0000   -0.0000
H        -2.1488   -2.9013   -4.5465    0.1305   -0.2403   -0.0000
H        -2.1488   -0.4203   -4.5465   -0.1305   -0.2403    0.0000
    12
stable frequency at   1151.821 1/cm IR int. is 1.105 a.m.u.; force const. is 0.863 mDyne/Ang.
C        -0.0002   -0.2736   -4.5465    0.0000    0.0086    0.0000
C         1.2011   -0.9672   -4.5465   -0.0257    0.0360    0.0000
C         1.2011   -2.3544   -4.5465   -0.0257   -0.0360   -0.0000
C        -0.0002   -3.0480   -4.5465   -0.0000   -0.0086    0.0000
C        -1.2016   -2.3544   -4.5465    0.0257   -0.0360   -0.0000
C        -1.2016   -0.9672   -4.5465    0.0257    0.0360   -0.0000
H        -0.0002    0.8201   -4.5465    0.0000    0.0083   -0.0000
H         2.1483   -0.4203   -4.5465   -0.2403    0.4081   -0.0000
H         2.1483   -2.9013   -4.5465   -0.2403   -0.4081    0.0000
H        -0.0002   -4.1417   -4.5465   -0.0000   -0.0083    0.0000
H        -2.1488   -2.9013   -4.5465    0.2403   -0.4081    0.0000
H        -2.1488   -0.4203   -4.5465    0.2403    0.4081    0.0000
    12
stable frequency at   1317.388 1/cm IR int. is 1.250 a.m.u.; force const. is 1.279 mDyne/Ang.
C        -0.0002   -0.2736   -4.5465   -0.0542    0.0000   -0.0000
C         1.2011   -0.9672   -4.5465   -0.0271    0.0469   -0.0000
C         1.2011   -2.3544   -4.5465    0.0271    0.0469    0.0000
C        -0.0002   -3.0480   -4.5465    0.0542    0.0000    0.0000
C        -1.2016   -2.3544   -4.5465    0.0271   -0.0469    0.0000
C        -1.2016   -0.9672   -4.5465   -0.0271   -0.0469   -0.0000
H        -0.0002    0.8201   -4.5465    0.3610   -0.0000    0.0000
H         2.1483   -0.4203   -4.5465    0.1805   -0.3127   -0.0000
H         2.1483   -2.9013   -4.5465   -0.1805   -0.3127   -0.0000
H        -0.0002   -4.1417   -4.5465   -0.3610    0.0000   -0.0000
H        -2.1488   -2.9013   -4.5465   -0.1805    0.3127   -0.0000
H        -2.1488   -0.4203   -4.5465    0.1805    0.3127   -0.0000
    12
stable frequency at   1388.757 1/cm IR int. is 9.653 a.m.u.; force const. is 10.969 mDyne/Ang.
C        -0.0002   -0.2736   -4.5465   -0.1165   -0.0000   -0.0000
C         1.2011   -0.9672   -4.5465    0.0583   -0.1008    0.0000
C         1.2011   -2.3544   -4.5465    0.0583    0.1008   -0.0000
C        -0.0002   -3.0480   -4.5465   -0.1165    0.0000   -0.0000
C        -1.2016   -2.3544   -4.5465    0.0583   -0.1008    0.0000
C        -1.2016   -0.9672   -4.5465    0.0583    0.1008    0.0000
H        -0.0002    0.8201   -4.5465    0.0608   -0.0000    0.0000
H         2.1483   -0.4203   -4.5465   -0.0304    0.0527   -0.0000
H         2.1483   -2.9013   -4.5465   -0.0304   -0.0527    0.0000
H        -0.0002   -4.1417   -4.5465    0.0608   -0.0000    0.0000
H        -2.1488   -2.9013   -4.5465   -0.0304    0.0527   -0.0000
H        -2.1488   -0.4203   -4.5465   -0.0304   -0.0527   -0.0000
    12
stable frequency at   1466.148 1/cm IR int. is 2.264 a.m.u.; force const. is 2.867 mDyne/Ang.
C        -0.0002   -0.2736   -4.5465   -0.0000   -0.0714    0.0000
C         1.2011   -0.9672   -4.5465   -0.0778    0.0632   -0.0000
C         1.2011   -2.3544   -4.5465    0.0778    0.0632    0.0000
C        -0.0002   -3.0480   -4.5465   -0.0000   -0.0714   -0.0000
C        -1.2016   -2.3544   -4.5465   -0.0778    0.0632    0.0000
C        -1.2016   -0.9672   -4.5465    0.0778    0.0632   -0.0000
H        -0.0002    0.8201   -4.5465    0.0000   -0.0865   -0.0000
H         2.1483   -0.4203   -4.5465    0.1143   -0.2847   -0.0000
H         2.1483   -2.9013   -4.5465   -0.1143   -0.2847   -0.0000
H        -0.0002   -4.1417   -4.5465    0.0000   -0.0865   -0.0000
H        -2.1488   -2.9013   -4.5465    0.1143   -0.2847   -0.0000
H        -2.1488   -0.4203   -4.5465   -0.1143   -0.2847    0.0000
    12
stable frequency at   1466.208 1/cm IR int. is 2.263 a.m.u.; force const. is 2.866 mDyne/Ang.
C        -0.0002   -0.2736   -4.5465    0.1081   -0.0000    0.0000
C         1.2011   -0.9672   -4.5465   -0.0265   -0.0778    0.0000
C         1.2011   -2.3544   -4.5465   -0.0265    0.0778   -0.0000
C        -0.0002   -3.0480   -4.5465    0.1081   -0.0000    0.0000
C        -1.2016   -2.3544   -4.5465   -0.0265   -0.0778   -0.0000
C        -1.2016   -0.9672   -4.5465   -0.0265    0.0778    0.0000
H        -0.0002    0.8201   -4.5465   -0.3507   -0.0000   -0.0000
H         2.1483   -0.4203   -4.5465   -0.1526    0.1145   -0.0000
H         2.1483   -2.9013   -4.5465   -0.1526   -0.1145   -0.0000
H        -0.0002   -4.1417   -4.5465   -0.3507   -0.0000    0.0000
H        -2.1488   -2.9013   -4.5465   -0.1526    0.1145    0.0000
H        -2.1488   -0.4203   -4.5465   -0.1526   -0.1145   -0.0000
    12
stable frequency at   1617.856 1/cm IR int. is 6.320 a.m.u.; force const. is 9.746 mDyne/Ang.
C        -0.0002   -0.2736   -4.5465   -0.0000    0.0638    0.0000
C         1.2011   -0.9672   -4.5465    0.0357   -0.1256    0.0000
C         1.2011   -2.3544   -4.5465    0.0357    0.1256   -0.0000
C        -0.0002   -3.0480   -4.5465    0.0000   -0.0638    0.0000
C        -1.2016   -2.3544   -4.5465   -0.0357    0.1256   -0.0000
C        -1.2016   -0.9672   -4.5465   -0.0357   -0.1256   -0.0000
H        -0.0002    0.8201   -4.5465    0.0000    0.0716   -0.0000
H         2.1483   -0.4203   -4.5465   -0.0954    0.0938   -0.0000
H         2.1483   -2.9013   -4.5465   -0.0954   -0.0938    0.0000
H        -0.0002   -4.1417   -4.5465   -0.0000   -0.0716   -0.0000
H        -2.1488   -2.9013   -4.5465    0.0954   -0.0938    0.0000
H        -2.1488   -0.4203   -4.5465    0.0954    0.0938   -0.0000
    12
stable frequency at   1617.960 1/cm IR int. is 6.319 a.m.u.; force const. is 9.746 mDyne/Ang.
C        -0.0002   -0.2736   -4.5465   -0.1462   -0.0000   -0.0000
C         1.2011   -0.9672   -4.5465    0.0845   -0.0357   -0.0000
C         1.2011   -2.3544   -4.5465   -0.0845   -0.0357    0.0000
C        -0.0002   -3.0480   -4.5465    0.1462    0.0000   -0.0000
C        -1.2016   -2.3544   -4.5465   -0.0845    0.0357    0.0000
C        -1.2016   -0.9672   -4.5465    0.0845    0.0357    0.0000
H        -0.0002    0.8201   -4.5465    0.1488   -0.0000    0.0000
H         2.1483   -0.4203   -4.5465    0.0165    0.0955   -0.0000
H         2.1483   -2.9013   -4.5465   -0.0165    0.0955   -0.0000
H        -0.0002   -4.1417   -4.5465   -0.1488    0.0000   -0.0000
H        -2.1488   -2.9013   -4.5465   -0.0165   -0.0955    0.0000
H        -2.1488   -0.4203   -4.5465    0.0165   -0.0955   -0.0000
    12
stable frequency at   3091.847 1/cm IR int. is 1.084 a.m.u.; force const. is 6.104 mDyne/Ang.
C        -0.0002   -0.2736   -4.5465    0.0000    0.0325    0.0000
C         1.2011   -0.9672   -4.5465   -0.0282   -0.0163   -0.0000
C         1.2011   -2.3544   -4.5465    0.0282   -0.0163    0.0000
C        -0.0002   -3.0480   -4.5465    0.0000    0.0325    0.0000
C        -1.2016   -2.3544   -4.5465   -0.0282   -0.0163    0.0000
C        -1.2016   -0.9672   -4.5465    0.0282   -0.0163   -0.0000
H        -0.0002    0.8201   -4.5465   -0.0000   -0.3902   -0.0000
H         2.1483   -0.4203   -4.5465    0.3387    0.1955   -0.0000
H         2.1483   -2.9013   -4.5465   -0.3387    0.1955   -0.0000
H        -0.0002   -4.1417   -4.5465   -0.0000   -0.3902    0.0000
H        -2.1488   -2.9013   -4.5465    0.3387    0.1955   -0.0000
H        -2.1488   -0.4203   -4.5465   -0.3387    0.1955    0.0000
    12
stable frequency at   3101.416 1/cm IR int. is 1.088 a.m.u.; force const. is 6.164 mDyne/Ang.
C        -0.0002   -0.2736   -4.5465    0.0020   -0.0000    0.0000
C         1.2011   -0.9672   -4.5465   -0.0358   -0.0195   -0.0000
C         1.2011   -2.3544   -4.5465    0.0358   -0.0195    0.0000
C        -0.0002   -3.0480   -4.5465   -0.0020    0.0000   -0.0000
C        -1.2016   -2.3544   -4.5465    0.0358    0.0195   -0.0000
C        -1.2016   -0.9672   -4.5465   -0.0358    0.0195   -0.0000
H        -0.0002    0.8201   -4.5465   -0.0017    0.0000   -0.0000
H         2.1483   -0.4203   -4.5465    0.4141    0.2381    0.0000
H         2.1483   -2.9013   -4.5465   -0.4141    0.2381    0.0000
H        -0.0002   -4.1417   -4.5465    0.0017   -0.0000    0.0000
H        -2.1488   -2.9013   -4.5465   -0.4141   -0.2381    0.0000
H        -2.1488   -0.4203   -4.5465    0.4141   -0.2381    0.0000
    12
stable frequency at   3101.507 1/cm IR int. is 1.088 a.m.u.; force const. is 6.165 mDyne/Ang.
C        -0.0002   -0.2736   -4.5465    0.0000    0.0470   -0.0000
C         1.2011   -0.9672   -4.5465   -0.0196   -0.0133    0.0000
C         1.2011   -2.3544   -4.5465   -0.0196    0.0133   -0.0000
C        -0.0002   -3.0480   -4.5465   -0.0000   -0.0470    0.0000
C        -1.2016   -2.3544   -4.5465    0.0196    0.0133   -0.0000
C        -1.2016   -0.9672   -4.5465    0.0196   -0.0133    0.0000
H        -0.0002    0.8201   -4.5465   -0.0000   -0.5505    0.0000
H         2.1483   -0.4203   -4.5465    0.2391    0.1397    0.0000
H         2.1483   -2.9013   -4.5465    0.2391   -0.1397   -0.0000
H        -0.0002   -4.1417   -4.5465    0.0000    0.5505   -0.0000
H        -2.1488   -2.9013   -4.5465   -0.2391   -0.1397   -0.0000
H        -2.1488   -0.4203   -4.5465   -0.2391    0.1397    0.0000
    12
stable frequency at   3114.391 1/cm IR int. is 1.096 a.m.u.; force const. is 6.261 mDyne/Ang.
C        -0.0002   -0.2736   -4.5465    0.0034    0.0000   -0.0000
C         1.2011   -0.9672   -4.5465   -0.0360   -0.0227    0.0000
C         1.2011   -2.3544   -4.5465   -0.0360    0.0227    0.0000
C        -0.0002   -3.0480   -4.5465    0.0034    0.0000   -0.0000
C        -1.2016   -2.3544   -4.5465   -0.0360   -0.0227    0.0000
C        -1.2016   -0.9672   -4.5465   -0.0360    0.0227   -0.0000
H        -0.0002    0.8201   -4.5465   -0.0038   -0.0000    0.0000
H         2.1483   -0.4203   -4.5465    0.4111    0.2395    0.0000
H         2.1483   -2.9013   -4.5465    0.4111   -0.2395    0.0000
H        -0.0002   -4.1417   -4.5465   -0.0038   -0.0000   -0.0000
H        -2.1488   -2.9013   -4.5465    0.4111    0.2395   -0.0000
H        -2.1488   -0.4203   -4.5465    0.4111   -0.2395   -0.0000
    12
stable frequency at   3114.407 1/cm IR int. is 1.096 a.m.u.; force const. is 6.262 mDyne/Ang.
C        -0.0002   -0.2736   -4.5465   -0.0000    0.0492   -0.0000
C         1.2011   -0.9672   -4.5465    0.0227    0.0097    0.0000
C         1.2011   -2.3544   -4.5465   -0.0227    0.0097    0.0000
C        -0.0002   -3.0480   -4.5465   -0.0000    0.0492   -0.0000
C        -1.2016   -2.3544   -4.5465    0.0227    0.0097   -0.0000
C        -1.2016   -0.9672   -4.5465   -0.0227    0.0097    0.0000
H        -0.0002    0.8201   -4.5465    0.0000   -0.5498   -0.0000
H         2.1483   -0.4203   -4.5465   -0.2392   -0.1342   -0.0000
H         2.1483   -2.9013   -4.5465    0.2392   -0.1342   -0.0000
H        -0.0002   -4.1417   -4.5465    0.0000   -0.5498    0.0000
H        -2.1488   -2.9013   -4.5465   -0.2392   -0.1342   -0.0000
H        -2.1488   -0.4203   -4.5465    0.2392   -0.1342    0.0000
    12
stable frequency at   3122.533 1/cm IR int. is 1.100 a.m.u.; force const. is 6.320 mDyne/Ang.
C        -0.0002   -0.2736   -4.5465    0.0000    0.0358   -0.0000
C         1.2011   -0.9672   -4.5465    0.0308    0.0178    0.0000
C         1.2011   -2.3544   -4.5465    0.0308   -0.0178    0.0000
C        -0.0002   -3.0480   -4.5465    0.0000   -0.0358   -0.0000
C        -1.2016   -2.3544   -4.5465   -0.0308   -0.0178   -0.0000
C        -1.2016   -0.9672   -4.5465   -0.0308    0.0178    0.0000
H        -0.0002    0.8201   -4.5465   -0.0000   -0.3891   -0.0000
H         2.1483   -0.4203   -4.5465   -0.3350   -0.1934   -0.0000
H         2.1483   -2.9013   -4.5465   -0.3350    0.1934    0.0000
H        -0.0002   -4.1417   -4.5465    0.0000    0.3891    0.0000
H        -2.1488   -2.9013   -4.5465    0.3350    0.1934   -0.0000
H        -2.1488   -0.4203   -4.5465    0.3350   -0.1934   -0.0000
